---------------------------------------------------------------------------
-------------------------- RIENM Corporation ------------------------------
---------------------------------------------------------------------------

RUNSPEC
-- -------------------------------------------------------------------------

TITLE
RIENM_CORP - CASE 1

DIMENS
12 26 10 /

EQLDIMS
/

TABDIMS
/

OIL
WATER


METRIC

START
1 'JAN' 2020 /

WELLDIMS
-- Item 1: maximum number of wells in the model
-- Item 2: maximum number of grid blocks connected to any one well
-- Item 3: maximum number of groups in the model
-- Item 4: maximum number of wells in any one group
100 100 100 100 /

UNIFOUT

GRID

INIT


-- -------------------------------------------------------------------------
NOECHO

DX
30 
22 
16 
11 
8 
8 
8 
8 
11 
16 
22 
30 
30 
22 
16 
11 
8 
8 
8 
8 
11 
16 
22 
30 
30 
22 
16 
11 
8 
8 
8 
8 
11 
16 
22 
30 
30 
22 
16 
11 
8 
8 
8 
8 
11 
16 
22 
30 
30 
22 
16 
11 
8 
8 
8 
8 
11 
16 
22 
30 
30 
22 
16 
11 
8 
8 
8 
8 
11 
16 
22 
30 
30 
22 
16 
11 
8 
8 
8 
8 
11 
16 
22 
30 
30 
22 
16 
11 
8 
8 
8 
8 
11 
16 
22 
30 
30 
22 
16 
11 
8 
8 
8 
8 
11 
16 
22 
30 
30 
22 
16 
11 
8 
8 
8 
8 
11 
16 
22 
30 
30 
22 
16 
11 
8 
8 
8 
8 
11 
16 
22 
30 
30 
22 
16 
11 
8 
8 
8 
8 
11 
16 
22 
30 
30 
22 
16 
11 
8 
8 
8 
8 
11 
16 
22 
30 
30 
22 
16 
11 
8 
8 
8 
8 
11 
16 
22 
30 
30 
22 
16 
11 
8 
8 
8 
8 
11 
16 
22 
30 
30 
22 
16 
11 
8 
8 
8 
8 
11 
16 
22 
30 
30 
22 
16 
11 
8 
8 
8 
8 
11 
16 
22 
30 
30 
22 
16 
11 
8 
8 
8 
8 
11 
16 
22 
30 
30 
22 
16 
11 
8 
8 
8 
8 
11 
16 
22 
30 
30 
22 
16 
11 
8 
8 
8 
8 
11 
16 
22 
30 
30 
22 
16 
11 
8 
8 
8 
8 
11 
16 
22 
30 
30 
22 
16 
11 
8 
8 
8 
8 
11 
16 
22 
30 
30 
22 
16 
11 
8 
8 
8 
8 
11 
16 
22 
30 
30 
22 
16 
11 
8 
8 
8 
8 
11 
16 
22 
30 
30 
22 
16 
11 
8 
8 
8 
8 
11 
16 
22 
30 
30 
22 
16 
11 
8 
8 
8 
8 
11 
16 
22 
30 
/

DY
75 
75 
75 
75 
75 
75 
75 
75 
75 
75 
75 
75 
52 
52 
52 
52 
52 
52 
52 
52 
52 
52 
52 
52 
36 
36 
36 
36 
36 
36 
36 
36 
36 
36 
36 
36 
25 
25 
25 
25 
25 
25 
25 
25 
25 
25 
25 
25 
25 
25 
25 
25 
25 
25 
25 
25 
25 
25 
25 
25 
25 
25 
25 
25 
25 
25 
25 
25 
25 
25 
25 
25 
25 
25 
25 
25 
25 
25 
25 
25 
25 
25 
25 
25 
25 
25 
25 
25 
25 
25 
25 
25 
25 
25 
25 
25 
25 
25 
25 
25 
25 
25 
25 
25 
25 
25 
25 
25 
25 
25 
25 
25 
25 
25 
25 
25 
25 
25 
25 
25 
25 
25 
25 
25 
25 
25 
25 
25 
25 
25 
25 
25 
25 
25 
25 
25 
25 
25 
25 
25 
25 
25 
25 
25 
25 
25 
25 
25 
25 
25 
25 
25 
25 
25 
25 
25 
25 
25 
25 
25 
25 
25 
25 
25 
25 
25 
25 
25 
25 
25 
25 
25 
25 
25 
25 
25 
25 
25 
25 
25 
25 
25 
25 
25 
25 
25 
25 
25 
25 
25 
25 
25 
25 
25 
25 
25 
25 
25 
25 
25 
25 
25 
25 
25 
25 
25 
25 
25 
25 
25 
25 
25 
25 
25 
25 
25 
25 
25 
25 
25 
25 
25 
25 
25 
25 
25 
25 
25 
25 
25 
25 
25 
25 
25 
25 
25 
25 
25 
25 
25 
25 
25 
25 
25 
25 
25 
25 
25 
25 
25 
25 
25 
25 
25 
25 
25 
25 
25 
25 
25 
25 
25 
25 
25 
25 
25 
25 
25 
25 
25 
25 
25 
25 
25 
25 
25 
36 
36 
36 
36 
36 
36 
36 
36 
36 
36 
36 
36 
52 
52 
52 
52 
52 
52 
52 
52 
52 
52 
52 
52 
75 
75 
75 
75 
75 
75 
75 
75 
75 
75 
75 
75 
/

DZ
3120*1 /

TOPS
312*2500 /

PORO
3120*0.3 /

PERMX
3120*300 /

PERMY
3120*300 /

PERMZ
3120*300 /
ECHO

PROPS
-- -------------------------------------------------------------------------

PVTW
-- Item 1: pressure reference
-- Item 2: water FVF
-- Item 3: water compressibility
-- Item 4: water viscosity (cp)
-- Item 5: water 'viscosibility'

320     1.026 4.68E-005      0.29        1* /


ROCK
-- Item 1: reference pressure
-- Item 2: rock compressibility

320 1.5E-005
/

SWOF
-- Column 1: water saturation
-- Column 2: water relative permeability
-- Column 3: oil relative permeability when only oil and water are present
-- Column 4: water-oil capillary pressure

0           0           1           1.6
0.12           0           1           1.5
0.121           0           1           1.5
0.14           0       0.997           1.5
0.17           0        0.98           1.5
0.24           0.0001         0.7           0.8
0.32           0.011        0.35           0.3
0.37           0.030         0.2           0.2
0.42           0.049        0.09           0.1
0.52           0.125       0.021           0
0.57           0.192        0.01           0
0.62           0.246       0.001           0
0.72           0.420      0.0001           0
0.82           0.640           0           0
1      	 1           0           0
/


DENSITY
860 1010 0.9 /

PVTO
-- Column 1: dissolved gas-oil ratio
-- Column 2: bubble point pressure
-- Column 3: oil FVF for saturated oil
-- Column 4: oil viscosity for saturated oil (cP)

0.178108 1.01352580665     1.062      1.04 /
16.118774 18.250359078      1.15     0.975 /
32.05944 35.48719153875     1.207      0.91 /
66.078068 69.9608574735     1.295      0.83 /
113.27669 138.90818529     1.435     0.695 /
138.0337 173.3818583175       1.5     0.641 /
165.64044 207.8555212125     1.565     0.594 /
226.19716 276.802857135     1.695      0.51
621.5395164825     1.579      0.74 /
288.17874 345.750182925     1.827     0.449
621.5395164825     1.726     0.605 /
/

SOLUTION
-- -------------------------------------------------------------------------

EQUIL
-- Item 1: datum depth
-- Item 2: pressure at datum depth
-- Item 3: depth of water-oil contact
-- Item 4: oil-water capillary pressure at the water oil contact
-- Item 5: depth of gas-oil contact
-- Item 6: gas-oil capillary pressure at gas-oil contact
-- Item 7: RSVD-table
-- Item 8: RVVD-table
-- Item 9: Set to 0 as this is the only value supported by OPM
2500 320 2507 0 2400 0  1 1* 1*/

RSVD
-- Dissolved GOR is initially constant with depth through the reservoir.
2499.36   70
2590.8   70
/

SUMMARY
-- -------------------------------------------------------------------------
RPTONLY
DATE
FGPR
FGPRF
FGPRS
FGPT
FGPTF
FGPTS
FLPR
FLPT
FOPR
FOPRF
FOPRS
FOPT
FOPTF
FOPTS
FWPR
FWPT
FGIR
FGIT
FOIR
FOIT
FWIR
FWIT
FVPR
FVPT
FVIR
FVIT
FGOR
FWCT
FGSAT
FOSAT
FWSAT
FGPV
FOPV
FWPV
FAQR
FAQT
FNQR
FNQT
FGIP
FGIPG
FGIPL
FOIP
FOIPG
FOIPL
FWIP
FRPV
FHPV
FOE
FOEW
FOEIW
FOEIG
FMWIN
FMWIP
FMWIT
FMWPP
FMWPR
FMWPT
FPR
FOVIS
FRS
RGIP
/
RGIPG
/
RGIPL
/
ROIP
/
ROIPG
/
ROIPL
/
RWIP
/
RHPV
/
RPR
/
RRPV
/
ROE
/
ROEIW
/
ROPR
/
ROPT
/
RWPR
/
RWPT
/
RWIR
/
RWIT
/
RGSAT
/
ROSAT
/
RWSAT
/
RRS
/
GGPR
/
GGPT
/
GLPR
/
GLPT
/
GOPR
/
GOPT
/
GWPR
/
GWPT
/
GGIR
/
GGIT
/
GOIR
/
GOIT
/
GWIR
/
GWIT
/
GGOR
/
GWCT
/
WGPT
/
WGPTF
/
WLPT
/
WOPT
/
WOPTF
/
WOPTS
/
WWPT
/
WVPT
/
WGIT
/
WOIT
/
WWIT
/
WVIT
/
WEFF
/
WGPR
/
WGPRF
/
WLPR
/
WOPR
/
WOPRF
/
WOPRS
/
WWPR
/
WVPR
/
WGIR
/
WOIR
/
WWIR
/
WVIR
/
WGOR
/
WWCT
/
WBHP
/
WBP
/
WBP4
/
WBP5
/
WBP9
/
WTHP
/
WTHT
/
WAPI
/
CGPT
/
CGPTF
/
CLPT

/
COPT
/
COPTS
/
CVPT
/
CWIT
/
CVIT
/
CPR
/
CTFAC
/
FGPRH
FGPTH
FLPRH
FLPTH
FOPRH
FOPTH
FWPRH
FWPTH
FGIRH
FGITH
FOIRH
FOITH
FWIRH
FWITH
FGORH
FWCTH
GGPRH
/
GGPTH
/
GLPRH
/
GLPTH
/
GOPRH
/
GOPTH
/
GWPRH
/
GWPTH
/
GGIRH
/
GGITH
/
GOIRH
/
GOITH
/
GWIRH
/
GWITH
/
GGORH
/
GWCTH
/
WGPRH
/
WGPTH
/
WLPRH
/
WLPTH
/
WOPRH
/
WOPTH
/
WWPRH
/
WWPTH
/
WGIRH
/
WGITH
/
WOIRH
/
WOITH
/
WWIRH
/
WWITH
/
WGORH
/
WWCTH
/
WBHPH
/
WTHPH
/


SCHEDULE
-- -------------------------------------------------------------------------
RPTSCHED
'PRES' 'SGAS' 'RS' 'WELLS' /

RPTRST
'BASIC=1' /

-- If no resolution (i.e. case 1). the two following lines must be added:
DRSDT
0 /
-- if DRSDT is set to 0, GOR cannot rise and free gas does not
-- dissolve in undersaturated oil -> constant bubble point pressure

WELSPECS
-- Item #: 1	 2	3	4	5	 6
P1 G1 6 6 * OIL /
/


COMPDAT
-- Item #: 1	2	3	4	5	6	7	8	9
P1 6 6 5 5 OPEN	1*	1*	0.5  1* 0 /
P1 6 7 5 5 OPEN	1*	1*	0.5  1* 0 /
P1 6 8 5 5 OPEN	1*	1*	0.5  1* 0 /
P1 6 9 5 5 OPEN	1*	1*	0.5  1* 0 /
P1 6 10 5 5 OPEN	1*	1*	0.5  1* 0 /
P1 6 11 5 5 OPEN	1*	1*	0.5  1* 0 /
P1 6 12 5 5 OPEN	1*	1*	0.5  1* 0 /
P1 6 13 5 5 OPEN	1*	1*	0.5  1* 0 /
P1 6 14 5 5 OPEN	1*	1*	0.5  1* 0 /
P1 6 15 5 5 OPEN	1*	1*	0.5  1* 0 /
P1 6 16 5 5 OPEN	1*	1*	0.5  1* 0 /
P1 6 17 5 5 OPEN	1*	1*	0.5  1* 0 /
P1 6 18 5 5 OPEN	1*	1*	0.5  1* 0 /
P1 6 19 5 5 OPEN	1*	1*	0.5  1* 0 /
P1 6 20 5 5 OPEN	1*	1*	0.5  1* 0 /
P1 6 21 5 5 OPEN	1*	1*	0.5  1* 0 /

/



WCONPROD
-- Item #:1	2      3     4	   5  9
P1 OPEN ORAT 50 4* * /
/


WCONINJE
-- Item #:1	 2	 3	 4	5      6  7
/


TSTEP
12*30 /


END
